@<TRIPOS>MOLECULE
WPC
   57    68     1     0     0
SMALL
bcc


@<TRIPOS>ATOM
      1 N            1.8920     0.0590    -0.0600 nc         1 WPC      -0.566500
      2 N1           2.2790     0.0600    -2.3520 nf         1 WPC      -0.523250
      3 N2           2.3170     0.0600     2.2720 nf         1 WPC      -0.523250
      4 N3          -0.0820     0.0560    -1.8690 nc         1 WPC      -0.566500
      5 N4          -0.0590     0.0560     1.7910 nc         1 WPC      -0.566500
      6 N5          -2.4600     0.0510    -2.3690 nf         1 WPC      -0.523250
      7 N6          -2.4360     0.0510     2.3300 nf         1 WPC      -0.523250
      8 N7          -1.9950     0.0520    -0.0260 nc         1 WPC      -0.566500
      9 C            6.5040     0.0680    -0.7660 ca         1 WPC      -0.091250
     10 C1           6.4930     0.0680     0.6460 ca         1 WPC      -0.091250
     11 C2           0.6150     0.0570    -6.5210 ca         1 WPC      -0.091250
     12 C3           0.7520     0.0580     6.4160 ca         1 WPC      -0.091250
     13 C4          -0.7860     0.0550    -6.5230 ca         1 WPC      -0.091250
     14 C5          -0.6490     0.0550     6.4720 ca         1 WPC      -0.091250
     15 C6          -6.6430     0.0440    -0.7290 ca         1 WPC      -0.091250
     16 C7          -6.6430     0.0440     0.6740 ca         1 WPC      -0.091250
     17 C8           5.2910     0.0660    -1.4720 ca         1 WPC      -0.002750
     18 C9           5.2780     0.0660     1.3380 ca         1 WPC      -0.002750
     19 C10          1.3190     0.0580    -5.3080 ca         1 WPC      -0.002750
     20 C11          1.4020     0.0590     5.1810 ca         1 WPC      -0.002750
     21 C12         -1.4810     0.0540    -5.3130 ca         1 WPC      -0.002750
     22 C13         -1.3860     0.0540     5.2880 ca         1 WPC      -0.002750
     23 C14         -5.4280     0.0460    -1.4320 ca         1 WPC      -0.002750
     24 C15         -5.4320     0.0460     1.3820 ca         1 WPC      -0.002750
     25 C16          2.6900     0.0610    -1.0980 cc         1 WPC       0.747650
     26 C17          2.7080     0.0610     0.9700 cd         1 WPC       0.747650
     27 C18          0.9690     0.0580    -2.7370 cd         1 WPC       0.747650
     28 C19          0.9970     0.0580     2.6470 cc         1 WPC       0.747650
     29 C20         -1.1430     0.0540    -2.7420 cc         1 WPC       0.747650
     30 C21         -1.1080     0.0540     2.6890 cd         1 WPC       0.747650
     31 C22         -2.8470     0.0510    -1.0720 cd         1 WPC       0.747650
     32 C23         -2.8330     0.0510     1.0300 cc         1 WPC       0.747650
     33 C24          4.1200     0.0630    -0.7410 ca         1 WPC      -0.215900
     34 C25          4.1250     0.0630     0.6060 ca         1 WPC      -0.215900
     35 C26          0.5890     0.0570    -4.1400 ca         1 WPC      -0.215900
     36 C27          0.6430     0.0570     4.0590 ca         1 WPC      -0.215900
     37 C28         -0.7590     0.0550    -4.1520 ca         1 WPC      -0.215900
     38 C29         -0.6970     0.0550     4.0940 ca         1 WPC      -0.215900
     39 C30         -4.2620     0.0480    -0.6970 ca         1 WPC      -0.215900
     40 C31         -4.2600     0.0490     0.6560 ca         1 WPC      -0.215900
     41 H            7.3730     0.0690    -1.2610 ha         1 WPC       0.180000
     42 H1           7.3560     0.0690     1.1520 ha         1 WPC       0.180000
     43 H2           1.1150     0.0580    -7.3870 ha         1 WPC       0.180000
     44 H3           1.2860     0.0590     7.2620 ha         1 WPC       0.180000
     45 H4          -1.2860     0.0540    -7.3890 ha         1 WPC       0.180000
     46 H5          -1.1170     0.0540     7.3560 ha         1 WPC       0.180000
     47 H6          -7.5090     0.0430    -1.2290 ha         1 WPC       0.180000
     48 H7          -7.5100     0.0430     1.1720 ha         1 WPC       0.180000
     49 H8           5.2750     0.0670    -2.4720 ha         1 WPC       0.177000
     50 H9           5.2540     0.0670     2.3380 ha         1 WPC       0.177000
     51 H10          2.3190     0.0590    -5.2920 ha         1 WPC       0.177000
     52 H11          2.4010     0.0610     5.1260 ha         1 WPC       0.177000
     53 H12         -2.4810     0.0530    -5.2950 ha         1 WPC       0.177000
     54 H13         -2.3860     0.0530     5.3050 ha         1 WPC       0.177000
     55 H14         -5.4090     0.0460    -2.4320 ha         1 WPC       0.177000
     56 H15         -5.4190     0.0450     2.3820 ha         1 WPC       0.177000
     57 FEX         -0.0160     0.0560    -0.0570 fe         1 WPC       1.000000
@<TRIPOS>BOND
     1     1    25 1   
     2     1    26 2   
     3     2    25 2   
     4     2    27 1   
     5     3    26 1   
     6     3    28 2   
     7     4    27 2   
     8     4    29 1   
     9     5    28 1   
    10     5    30 2   
    11     6    29 2   
    12     6    31 1   
    13     7    30 1   
    14     7    32 2   
    15     8    31 2   
    16     8    32 1   
    17     9    10 ar  
    18     9    17 ar  
    19     9    41 1   
    20    10    18 ar  
    21    10    42 1   
    22    11    13 ar  
    23    11    19 ar  
    24    11    43 1   
    25    12    14 ar  
    26    12    20 ar  
    27    12    44 1   
    28    13    21 ar  
    29    13    45 1   
    30    14    22 ar  
    31    14    46 1   
    32    15    16 ar  
    33    15    23 ar  
    34    15    47 1   
    35    16    24 ar  
    36    16    48 1   
    37    17    33 ar  
    38    17    49 1   
    39    18    34 ar  
    40    18    50 1   
    41    19    35 ar  
    42    19    51 1   
    43    20    36 ar  
    44    20    52 1   
    45    21    37 ar  
    46    21    53 1   
    47    22    38 ar  
    48    22    54 1   
    49    23    39 ar  
    50    23    55 1   
    51    24    40 ar  
    52    24    56 1   
    53    25    33 1   
    54    26    34 1   
    55    27    35 1   
    56    28    36 1   
    57    29    37 1   
    58    30    38 1   
    59    31    39 1   
    60    32    40 1   
    61    33    34 ar  
    62    35    37 ar  
    63    36    38 ar  
    64    39    40 ar  
    65    57    1  1
    66    57    4  1
    67    57    5  1
    68    57    8  1
@<TRIPOS>SUBSTRUCTURE
     1 WPC         1 TEMP              0 ****  ****    0 ROOT
