@<TRIPOS>MOLECULE
WPC
   56    64     1     0     0
SMALL
bcc


@<TRIPOS>ATOM
      1 C1          56.0470    68.2700    45.1570 ca         1 WPC      -0.171900
      2 N6          51.8310    66.0770    44.0370 nc         1 WPC      -0.649000
      3 N4          50.0980    67.6450    45.3710 nc         1 WPC      -0.649000
      4 N1          53.7410    67.6920    45.0110 nc         1 WPC      -0.649000
      5 C12         49.2020    66.7120    44.9520 cd         1 WPC       0.717400
      6 C7          53.0920    69.9680    46.6540 cc         1 WPC       0.717400
      7 C2          55.9590    67.1880    44.3460 ca         1 WPC      -0.171900
      8 C9          47.8130    67.0130    45.2660 ca         1 WPC      -0.171900
      9 C3          54.5480    66.8360    44.3250 cc         1 WPC       0.717400
     10 C10         47.8430    68.1440    45.9850 ca         1 WPC      -0.171900
     11 C5          51.4250    71.2290    47.4550 ca         1 WPC      -0.171900
     12 N3          54.3700    69.6190    46.3690 nc         1 WPC      -0.641000
     13 C4          54.6670    68.5630    45.5390 cd         1 WPC       0.717400
     14 C11         49.2480    68.5670    45.9540 cc         1 WPC       0.717400
     15 C8          50.9840    70.0250    46.7250 cd         1 WPC       0.717400
     16 N5          49.6720    69.6690    46.6600 nc         1 WPC      -0.641000
     17 C6          52.7780    71.2150    47.3600 ca         1 WPC      -0.171900
     18 N7          54.0920    65.7870    43.5650 nc         1 WPC      -0.641000
     19 N8          49.5060    65.6260    44.1660 nc         1 WPC      -0.641000
     20 C13         52.4150    64.1320    42.8890 ca         1 WPC      -0.171900
     21 C14         51.0780    64.1030    43.0490 ca         1 WPC      -0.171900
     22 C15         50.7930    65.2560    43.9070 cc         1 WPC       0.717400
     23 C16         52.8440    65.3270    43.6410 cd         1 WPC       0.717400
     24 C17         46.6670    66.3300    45.0300 ca         1 WPC      -0.068500
     25 C18         45.4710    66.8520    45.5280 ca         1 WPC      -0.124500
     26 C19         45.4830    68.0490    46.2580 ca         1 WPC      -0.124500
     27 C20         46.6880    68.7150    46.4780 ca         1 WPC      -0.068500
     28 C21         50.7500    72.2590    48.0790 ca         1 WPC      -0.068500
     29 C22         51.5100    73.3070    48.6200 ca         1 WPC      -0.124500
     30 C23         52.9100    73.2940    48.5150 ca         1 WPC      -0.124500
     31 C24         53.5600    72.2260    47.8720 ca         1 WPC      -0.068500
     32 C25         57.2410    68.8740    45.4480 ca         1 WPC      -0.068500
     33 C26         58.4020    68.3370    44.8890 ca         1 WPC      -0.124500
     34 C27         58.3220    67.2060    44.0550 ca         1 WPC      -0.124500
     35 C28         57.0790    66.6120    43.7890 ca         1 WPC      -0.068500
     36 C29         53.0960    63.1010    42.2650 ca         1 WPC      -0.068500
     37 C30         52.3430    62.0270    41.7640 ca         1 WPC      -0.124500
     38 C31         50.9420    62.0020    41.9520 ca         1 WPC      -0.124500
     39 C32         50.3090    63.0440    42.6340 ca         1 WPC      -0.068500
     40 N2          52.0100    69.2350    46.3150 nc         1 WPC      -0.649000
     41 H9          46.7130    69.5550    46.9630 ha         1 WPC       0.154000
     42 H8          57.0110    65.8210    43.2310 ha         1 WPC       0.154000
     43 H7          59.1290    66.8360    43.6630 ha         1 WPC       0.138000
     44 H6          59.2630    68.7430    45.0750 ha         1 WPC       0.138000
     45 H5          57.2790    69.6520    46.0260 ha         1 WPC       0.154000
     46 H4          49.7820    72.2580    48.1410 ha         1 WPC       0.154000
     47 H3          51.0660    74.0440    49.0690 ha         1 WPC       0.138000
     48 H2          53.4300    74.0240    48.8870 ha         1 WPC       0.138000
     49 H16         50.4200    61.2610    41.6070 ha         1 WPC       0.138000
     50 H15         52.7830    61.3040    41.2900 ha         1 WPC       0.138000
     51 H14         54.0620    63.1200    42.1770 ha         1 WPC       0.154000
     52 H13         49.3550    63.0200    42.8090 ha         1 WPC       0.154000
     53 H12         46.6770    65.5000    44.5280 ha         1 WPC       0.154000
     54 H11         44.6340    66.3880    45.3690 ha         1 WPC       0.138000
     55 H10         44.6550    68.4130    46.6090 ha         1 WPC       0.138000
     56 H1          54.5260    72.2020    47.7920 ha         1 WPC       0.154000
@<TRIPOS>BOND
     1     1     7 ar  
     2     1    13 1   
     3     1    32 ar  
     4     2    22 1   
     5     2    23 2   
     6     3     5 2   
     7     3    14 1   
     8     4     9 1   
     9     4    13 2   
    10     5     8 1   
    11     5    19 1   
    12     6    12 2   
    13     6    17 1   
    14     6    40 1   
    15     7     9 1   
    16     7    35 ar  
    17     8    10 ar  
    18     8    24 ar  
    19     9    18 2   
    20    10    14 1   
    21    10    27 ar  
    22    11    15 1   
    23    11    17 ar  
    24    11    28 ar  
    25    12    13 1   
    26    14    16 2   
    27    15    16 1   
    28    15    40 2   
    29    17    31 ar  
    30    18    23 1   
    31    19    22 2   
    32    20    21 ar  
    33    20    23 1   
    34    20    36 ar  
    35    21    22 1   
    36    21    39 ar  
    37    24    25 ar  
    38    24    53 1   
    39    25    26 ar  
    40    25    54 1   
    41    26    27 ar  
    42    26    55 1   
    43    27    41 1   
    44    28    29 ar  
    45    28    46 1   
    46    29    30 ar  
    47    29    47 1   
    48    30    31 ar  
    49    30    48 1   
    50    31    56 1   
    51    32    33 ar  
    52    32    45 1   
    53    33    34 ar  
    54    33    44 1   
    55    34    35 ar  
    56    34    43 1   
    57    35    42 1   
    58    36    37 ar  
    59    36    51 1   
    60    37    38 ar  
    61    37    50 1   
    62    38    39 ar  
    63    38    49 1   
    64    39    52 1   
@<TRIPOS>SUBSTRUCTURE
     1 WPC         1 TEMP              0 ****  ****    0 ROOT
