@<TRIPOS>MOLECULE
PLM
   49    48     1     0     0
SMALL
bcc


@<TRIPOS>ATOM
      1 CA         -32.6490     8.6000    92.3260 c3         1 PLM      -0.079400
      2 CB         -31.8080     7.3270    92.5460 c3         1 PLM      -0.076400
      3 CG         -31.5690     6.9070    86.7370 c3         1 PLM      -0.092100
      4 CD         -31.0280     5.9690    90.5210 c3         1 PLM      -0.077400
      5 CE         -31.7150     6.5390    89.2680 c3         1 PLM      -0.077400
      6 C1         -32.3390    17.1380    88.0420 c          1 PLM       0.907600
      7 O1         -32.5840    18.3180    87.6630 o          1 PLM      -0.853300
      8 C2         -31.9240    16.8660    89.4780 c3         1 PLM      -0.194400
      9 O2         -32.4450    16.1420    87.2860 o          1 PLM      -0.853300
     10 C3         -31.6990    15.3560    89.6190 c3         1 PLM      -0.066400
     11 C4         -32.2900    14.7530    90.8930 c3         1 PLM      -0.074400
     12 C5         -33.4260    13.7570    90.6640 c3         1 PLM      -0.079400
     13 C6         -33.8040    13.1200    91.9990 c3         1 PLM      -0.076400
     14 C7         -33.5480    11.6290    91.9030 c3         1 PLM      -0.079400
     15 C8         -32.9090    11.0640    93.1630 c3         1 PLM      -0.078400
     16 C9         -31.9760     9.9010    92.8120 c3         1 PLM      -0.076400
     17 CC         -30.6840     7.0730    91.5250 c3         1 PLM      -0.080400
     18 CF         -30.7960     6.7100    88.0450 c3         1 PLM      -0.081400
     19 HG3        -32.1330     6.1350    86.5750 hc         1 PLM       0.030367
     20 HG2        -32.1210     7.7020    86.8040 hc         1 PLM       0.030367
     21 HG1        -30.9430     7.0090    86.0030 hc         1 PLM       0.030367
     22 HF2        -30.2140     7.4720    88.1890 hc         1 PLM       0.041700
     23 HF1        -30.2260     5.9290    87.9630 hc         1 PLM       0.041700
     24 HE2        -32.4500     5.9550    89.0240 hc         1 PLM       0.036200
     25 HE1        -32.1000     7.4010    89.4900 hc         1 PLM       0.036200
     26 HD2        -30.2180     5.5010    90.2630 hc         1 PLM       0.035700
     27 HD1        -31.6100     5.3170    90.9420 hc         1 PLM       0.035700
     28 HC2        -30.4990     7.8950    91.0440 hc         1 PLM       0.044700
     29 HC1        -29.8720     6.8320    91.9980 hc         1 PLM       0.044700
     30 HB2        -31.4130     7.3710    93.4310 hc         1 PLM       0.033700
     31 HB1        -32.4050     6.5620    92.5400 hc         1 PLM       0.033700
     32 HA2        -33.4980     8.4970    92.7850 hc         1 PLM       0.041700
     33 HA1        -32.8460     8.6850    91.3800 hc         1 PLM       0.041700
     34 H92        -31.3630    10.2010    92.1230 hc         1 PLM       0.034700
     35 H91        -31.4430     9.6930    93.5950 hc         1 PLM       0.034700
     36 H82        -32.4110    11.7600    93.6200 hc         1 PLM       0.034700
     37 H81        -33.5980    10.7600    93.7740 hc         1 PLM       0.034700
     38 H72        -34.3860    11.1700    91.7360 hc         1 PLM       0.041200
     39 H71        -32.9710    11.4510    91.1440 hc         1 PLM       0.041200
     40 H62        -33.2810    13.5070    92.7180 hc         1 PLM       0.029200
     41 H61        -34.7370    13.2900    92.2030 hc         1 PLM       0.029200
     42 H52        -34.1940    14.2070    90.2780 hc         1 PLM       0.045200
     43 H51        -33.1510    13.0740    90.0330 hc         1 PLM       0.045200
     44 H42        -31.5810    14.3090    91.3840 hc         1 PLM       0.018200
     45 H41        -32.6160    15.4730    91.4550 hc         1 PLM       0.018200
     46 H32        -32.0860    14.9080    88.8510 hc         1 PLM       0.044200
     47 H31        -30.7460    15.1780    89.6000 hc         1 PLM       0.044200
     48 H22        -31.1140    17.3530    89.6960 hc         1 PLM       0.018700
     49 H21        -32.6100    17.1670    90.0940 hc         1 PLM       0.018700
@<TRIPOS>BOND
     1     1     2 1   
     2     1    16 1   
     3     1    32 1   
     4     1    33 1   
     5     2    17 1   
     6     2    30 1   
     7     2    31 1   
     8     3    18 1   
     9     3    19 1   
    10     3    20 1   
    11     3    21 1   
    12     4     5 1   
    13     4    17 1   
    14     4    26 1   
    15     4    27 1   
    16     5    18 1   
    17     5    24 1   
    18     5    25 1   
    19     6     7 1   
    20     6     8 1   
    21     6     9 1   
    22     8    10 1   
    23     8    48 1   
    24     8    49 1   
    25    10    11 1   
    26    10    46 1   
    27    10    47 1   
    28    11    12 1   
    29    11    44 1   
    30    11    45 1   
    31    12    13 1   
    32    12    42 1   
    33    12    43 1   
    34    13    14 1   
    35    13    40 1   
    36    13    41 1   
    37    14    15 1   
    38    14    38 1   
    39    14    39 1   
    40    15    16 1   
    41    15    36 1   
    42    15    37 1   
    43    16    34 1   
    44    16    35 1   
    45    17    28 1   
    46    17    29 1   
    47    18    22 1   
    48    18    23 1   
@<TRIPOS>SUBSTRUCTURE
     1 PLM         1 TEMP              0 ****  ****    0 ROOT
