@<TRIPOS>MOLECULE
FAD
   84    89     1     0     0
SMALL
bcc


@<TRIPOS>ATOM
      1 P          -30.9690    28.9260    78.0100 p5       701 FAD       1.602800
      2 PA         -28.5670    27.4940    78.3610 p5       701 FAD       1.640800
      3 O1P        -31.5370    29.6880    76.8240 o        701 FAD      -0.868000
      4 O2P        -31.0540    29.5580    79.4120 o        701 FAD      -0.868000
      5 O3P        -29.4450    28.5830    77.5780 os       701 FAD      -0.813800
      6 C5'        -32.6260    27.2940    79.0370 c3       701 FAD       0.165400
      7 O5'        -31.6750    27.4950    78.0320 os       701 FAD      -0.595200
      8 C4'        -32.9620    25.8290    79.1220 c3       701 FAD       0.097100
      9 O4'        -31.9790    25.0160    78.4590 oh       701 FAD      -0.611800
     10 C3'        -32.9730    25.4570    80.5870 c3       701 FAD       0.091100
     11 O3'        -33.8100    26.3130    81.3780 oh       701 FAD      -0.638800
     12 C2'        -33.4630    24.0420    80.7390 c3       701 FAD       0.153100
     13 O2'        -32.5950    23.1640    79.9870 oh       701 FAD      -0.631800
     14 C1'        -33.4660    23.7930    82.2420 c3       701 FAD      -0.028700
     15 C1B        -23.2190    29.6510    77.0380 c3       701 FAD       0.218800
     16 N1         -35.8720    22.1730    81.8050 nc       701 FAD      -0.414400
     17 N1A        -19.2640    32.8400    76.0470 nb       701 FAD      -0.800000
     18 O1A        -29.0150    26.2220    77.6960 o        701 FAD      -0.903500
     19 C2         -37.0000    21.4580    81.5670 c        701 FAD       0.851900
     20 C2A        -19.9350    32.0350    75.1790 ca       701 FAD       0.649900
     21 C2B        -23.1310    28.2850    77.7310 c3       701 FAD       0.123100
     22 O2         -38.0030    22.0330    81.0530 o        701 FAD      -0.622500
     23 O2A        -28.5460    27.7390    79.8650 o        701 FAD      -0.903500
     24 O2B        -21.9900    27.5910    77.2230 oh       701 FAD      -0.594800
     25 C3B        -24.4080    27.6660    77.2600 c3       701 FAD       0.063100
     26 N3         -37.0760    20.1540    81.8970 n        701 FAD      -0.623500
     27 N3A        -20.9560    31.2560    75.6150 nb       701 FAD      -0.723000
     28 O3B        -24.0720    26.8870    76.1080 oh       701 FAD      -0.624800
     29 C4         -36.0670    19.4860    82.4660 c        701 FAD       0.614000
     30 C4A        -21.3510    31.2470    76.9280 ca       701 FAD       0.441800
     31 C4B        -25.3030    28.8440    76.8130 c3       701 FAD       0.074100
     32 C4X        -34.7840    20.2080    82.7360 cd       701 FAD       0.268800
     33 O4         -36.2310    18.2800    82.7470 o        701 FAD      -0.625500
     34 O4B        -24.5980    30.0600    76.9750 os       701 FAD      -0.420600
     35 C5A        -20.6780    32.0900    77.9010 ca       701 FAD      -0.201200
     36 C5B        -26.5740    29.0110    77.6020 c3       701 FAD       0.190400
     37 C5X        -32.5200    20.3020    83.5080 ca       701 FAD       0.266600
     38 N5         -33.6850    19.6260    83.2950 nc       701 FAD      -0.528000
     39 O5B        -27.0990    27.6960    77.7620 os       701 FAD      -0.595200
     40 C6         -31.3870    19.6720    84.0570 ca       701 FAD      -0.131300
     41 C6A        -19.5820    32.9240    77.3850 ca       701 FAD       0.706200
     42 N6A        -18.9240    33.7190    78.2610 nh       701 FAD      -0.930500
     43 C7         -30.1990    20.3690    84.2910 ca       701 FAD      -0.121300
     44 C7M        -29.0230    19.6630    84.8990 c3       701 FAD      -0.042800
     45 N7A        -21.2600    31.8960    79.0890 nc       701 FAD      -0.571100
     46 C8         -30.1230    21.8150    83.9350 ca       701 FAD      -0.005300
     47 C8A        -22.2490    31.0150    78.9000 cd       701 FAD       0.451700
     48 C8M        -28.8860    22.6580    84.1310 c3       701 FAD      -0.075800
     49 C9         -31.2490    22.4260    83.3740 ca       701 FAD      -0.152000
     50 C9A        -32.4440    21.7410    83.1480 ca       701 FAD       0.010400
     51 N9A        -22.2880    30.6370    77.6260 na       701 FAD      -0.281000
     52 C10        -34.7530    21.6400    82.3600 cd       701 FAD       0.086400
     53 N10        -33.5650    22.3810    82.5880 na       701 FAD      -0.056100
     54 HN3        -37.8070    19.7320    81.7340 hn       701 FAD       0.328500
     55 HM7        -29.0400    18.7270    84.6450 hc       701 FAD       0.038367
     56 H7         -29.0660    19.7360    85.8650 hc       701 FAD       0.038367
     57 H10        -28.2020    20.0690    84.5810 hc       701 FAD       0.038367
     58 HM8        -29.1440    23.5780    84.2980 hc       701 FAD       0.062033
     59 H11        -28.3360    22.6170    83.3330 hc       701 FAD       0.062033
     60 H12        -28.3810    22.3220    84.8880 hc       701 FAD       0.062033
     61 HO2        -31.9760    23.6130    79.6380 ho       701 FAD       0.455000
     62 H13        -22.0780    27.4750    76.3960 ho       701 FAD       0.417000
     63 HO3        -33.3390    26.9040    81.7450 ho       701 FAD       0.462000
     64 H14        -23.7020    26.1730    76.3510 ho       701 FAD       0.430000
     65 HO4        -31.2540    25.4370    78.4100 ho       701 FAD       0.422000
     66 H6         -31.4320    18.7290    84.2790 ha       701 FAD       0.139000
     67 H9         -31.1970    23.3640    83.1320 ha       701 FAD       0.248000
     68 H2'        -34.3520    23.8790    80.3870 h1       701 FAD       0.082700
     69 H3'        -32.0630    25.5550    80.9070 h1       701 FAD       0.087700
     70 H1B        -22.9110    29.5820    76.1210 h2       701 FAD       0.105700
     71 H4'        -33.8180    25.6750    78.6920 h1       701 FAD       0.058700
     72 H2A        -19.6820    32.0180    74.2430 h5       701 FAD       0.030100
     73 H2B        -23.0340    28.2930    78.6960 h1       701 FAD       0.100700
     74 H3B        -24.8470    27.1220    77.9320 h1       701 FAD       0.136700
     75 H4B        -25.5340    28.6380    75.8940 h1       701 FAD       0.062700
     76 H8A        -22.8500    30.6980    79.5920 h5       701 FAD       0.172800
     77 H1'        -32.6540    24.1580    82.6260 h1       701 FAD       0.109700
     78 H15        -34.2090    24.2710    82.6420 h1       701 FAD       0.109700
     79 H5'        -32.2830    27.6070    79.8880 h1       701 FAD       0.027200
     80 H16        -33.4260    27.8090    78.8470 h1       701 FAD       0.027200
     81 H51        -26.3990    29.4240    78.4620 h1       701 FAD       0.044700
     82 H52        -27.2020    29.5830    77.1350 h1       701 FAD       0.044700
     83 H61        -19.1510    33.7250    79.0900 hn       701 FAD       0.416300
     84 H62        -18.2790    34.2180    77.9880 hn       701 FAD       0.416300
@<TRIPOS>BOND
     1     1     3 1   
     2     1     4 1   
     3     1     5 1   
     4     1     7 1   
     5     2     5 1   
     6     2    18 1   
     7     2    23 1   
     8     2    39 1   
     9     6     7 1   
    10     6     8 1   
    11     6    79 1   
    12     6    80 1   
    13     8     9 1   
    14     8    10 1   
    15     8    71 1   
    16     9    65 1   
    17    10    11 1   
    18    10    12 1   
    19    10    69 1   
    20    11    63 1   
    21    12    13 1   
    22    12    14 1   
    23    12    68 1   
    24    13    61 1   
    25    14    53 1   
    26    14    77 1   
    27    14    78 1   
    28    15    21 1   
    29    15    34 1   
    30    15    51 1   
    31    15    70 1   
    32    16    19 1   
    33    16    52 2   
    34    17    20 ar  
    35    17    41 ar  
    36    19    22 2   
    37    19    26 1   
    38    20    27 ar  
    39    20    72 1   
    40    21    24 1   
    41    21    25 1   
    42    21    73 1   
    43    24    62 1   
    44    25    28 1   
    45    25    31 1   
    46    25    74 1   
    47    26    29 1   
    48    26    54 1   
    49    27    30 ar  
    50    28    64 1   
    51    29    32 1   
    52    29    33 2   
    53    30    35 ar  
    54    30    51 1   
    55    31    34 1   
    56    31    36 1   
    57    31    75 1   
    58    32    38 2   
    59    32    52 1   
    60    35    41 ar  
    61    35    45 1   
    62    36    39 1   
    63    36    81 1   
    64    36    82 1   
    65    37    38 1   
    66    37    40 ar  
    67    37    50 ar  
    68    40    43 ar  
    69    40    66 1   
    70    41    42 1   
    71    42    83 1   
    72    42    84 1   
    73    43    44 1   
    74    43    46 ar  
    75    44    55 1   
    76    44    56 1   
    77    44    57 1   
    78    45    47 2   
    79    46    48 1   
    80    46    49 ar  
    81    47    51 1   
    82    47    76 1   
    83    48    58 1   
    84    48    59 1   
    85    48    60 1   
    86    49    50 ar  
    87    49    67 1   
    88    50    53 1   
    89    52    53 1   
@<TRIPOS>SUBSTRUCTURE
     1 FAD         1 TEMP              0 ****  ****    0 ROOT
